       8
 i =        0, time =        0.000, E =      -246.7884292959
 Na         0.0000000000        0.0000000000        0.0000000000
 Na         0.0000000000        2.0000000000        2.0000000000
 Na         2.0000000000        0.0000000000        2.0000000000
 Na         2.0000000000        2.0000000000        0.0000000000
 Cl         2.0000000000        2.0000000000        2.0000000000
 Cl         2.0000000000        0.0000000000        0.0000000000
 Cl         0.0000000000        2.0000000000        0.0000000000
 Cl         0.0000000000        0.0000000000        2.0000000000
       8
 i =        1, time =        0.500, E =      -246.7992160958
 Na        -0.0003396499       -0.0006883675        0.0007222853
 Na         0.0006064306        2.0001422780        2.0002204456
 Na         2.0013328106       -0.0019594844        2.0045001601
 Na         1.9999340967        2.0022817342        0.0030627079
 Cl         2.0014463903        2.0013828982        2.0018294670
 Cl         2.0015035769        0.0017643191       -0.0002566208
 Cl         0.0003326069        2.0022169201       -0.0024308040
 Cl        -0.0003384470       -0.0012953490        1.9992738804
       8
 i =        2, time =        1.000, E =      -246.8238810689
 Na        -0.0006696585       -0.0013527804        0.0014188522
 Na         0.0012098962        2.0017924644        2.0019488385
 Na         2.0042196616       -0.0039042925        2.0106574052
 Na         2.0013789723        2.0061553008        0.0061103944
 Cl         2.0044476208        2.0043108454        2.0052216081
 Cl         2.0045597713        0.0035480599       -0.0005067200
 Cl         0.0006639887        2.0059888668       -0.0048841916
 Cl        -0.0006793888       -0.0026011530        2.0000842000
       8
 i =        3, time =        1.500, E =      -246.8619776777
 Na        -0.0009753795       -0.0019595023        0.0020537529
 Na         0.0017964191        2.0049295182        2.0051624812
 Na         2.0086647227       -0.0057850348        2.0185180363
 Na         2.0043202676        2.0116463290        0.0090719733
 Cl         2.0090063781        2.0087782608        2.0101794507
 Cl         2.0091681855        0.0053378081       -0.0007389476
 Cl         0.0009867105        2.0113046210       -0.0073374270
 Cl        -0.0010191650       -0.0039040398        2.0024553878
       8
 i =        4, time =        2.000, E =      -246.9129662119
 Na        -0.0012485604       -0.0024885460        0.0026054761
 Na         0.0023615398        2.0094906185        2.0097978848
 Na         2.0146509770       -0.0075849367        2.0281248031
 Na         2.0086979401        2.0187767144        0.0119238015
 Cl         2.0151057867        2.0147594032        2.0166918259
 Cl         2.0153097922        0.0071470590       -0.0009459228
 Cl         0.0012982039        2.0181455207       -0.0098049565
 Cl        -0.0013592084       -0.0052108649        2.0063588459
       8
 i =        5, time =        2.500, E =      -246.9888749508
 Na        -0.0014831825       -0.0029249314        0.0030576099
 Na         0.0029033600        2.0154544304        2.0158332719
 Na         2.0222127343       -0.0092973254        2.0395647086
 Na         2.0144906662        2.0276287498        0.0146550235
 Cl         2.0227799976        2.0222798847        2.0248002136
 Cl         2.0230169262        0.0089961560       -0.0011208069
 Cl         0.0015971165        2.0265474656       -0.0123111475
 Cl        -0.0017019871       -0.0065341066        2.0118088857
       8
 i =        6, time =        3.000, E =      -436.0234267125
 Na        -0.0016640206       -0.0032705968        0.0034379667
 Na         0.0034052158        2.0227624538        2.0232061814
 Na         2.0312805196       -0.0108851728        2.0527245785
 Na         2.0216203010        2.0381618648        0.0171864700
 Cl         2.0319730798        2.0312773467        2.0344500826
 Cl         2.0322319464        0.0108805573       -0.0012544170
 Cl         0.0018781556        2.0364469105       -0.0148458537
 Cl        -0.0020451975       -0.0078699488        2.0187590954
