       8
 i =        0, time =        0.000, E =      -246.7884292959
 Na        -0.0000327694       -0.0000627850        0.0000661446
 Na         0.0000559031       -0.0000967229       -0.0000895212
 Na         0.0000130226       -0.0001806320        0.0003050021
 Na        -0.0001159153        0.0001004986        0.0002823308
 Cl         0.0000234918        0.0000176417        0.0000588067
 Cl         0.0000287701        0.0001626420       -0.0000236507
 Cl         0.0000306587        0.0000945215       -0.0002240836
 Cl        -0.0000312004       -0.0001194080       -0.0001767742
       8
 i =        1, time =        0.500, E =      -246.7992160958
 Na        -0.0000306441       -0.0000619041        0.0000649276
 Na         0.0000553663       -0.0000979852       -0.0000908293
 Na         0.0000130881       -0.0001786650        0.0003076913
 Na        -0.0001169071        0.0001016668        0.0002796191
 Cl         0.0000235198        0.0000172605        0.0000589388
 Cl         0.0000286519        0.0001623645       -0.0000231879
 Cl         0.0000303849        0.0000940493       -0.0002235078
 Cl        -0.0000310898       -0.0001190325       -0.0001761566
       8
 i =        2, time =        1.000, E =      -246.8238810689
 Na        -0.0000291133       -0.0000582096        0.0000609722
 Na         0.0000545021       -0.0001031112       -0.0000960213
 Na         0.0000134602       -0.0001752101        0.0003197350
 Na        -0.0001214795        0.0001065778        0.0002752276
 Cl         0.0000239068        0.0000163622        0.0000600934
 Cl         0.0000286976        0.0001636805       -0.0000220884
 Cl         0.0000299585        0.0000938787       -0.0002247417
 Cl        -0.0000311792       -0.0001194871       -0.0001766433
       8
 i =        3, time =        1.500, E =      -246.8619776777
 Na        -0.0000262840       -0.0000515571        0.0000538644
 Na         0.0000523205       -0.0001103828       -0.0001035270
 Na         0.0000139056       -0.0001672060        0.0003338134
 Na        -0.0001276057        0.0001135011        0.0002641088
 Cl         0.0000242144        0.0000146696        0.0000611277
 Cl         0.0000283833        0.0001635682       -0.0000199415
 Cl         0.0000288137        0.0000923011       -0.0002236314
 Cl        -0.0000308942       -0.0001185993       -0.0001749978
       8
 i =        4, time =        2.000, E =      -246.9129662119
 Na        -0.0000230993       -0.0000438819        0.0000456232
 Na         0.0000504606       -0.0001233260       -0.0001166748
 Na         0.0000148675       -0.0001600826        0.0003574511
 Na        -0.0001394758        0.0001261592        0.0002545030
 Cl         0.0000251599        0.0000126911        0.0000638433
 Cl         0.0000285713        0.0001669639       -0.0000173682
 Cl         0.0000278270        0.0000921636       -0.0002269701
 Cl        -0.0000311559       -0.0001200124       -0.0001765375
       8
 i =        5, time =        2.500, E =      -246.9888749508
 Na        -0.0000184546       -0.0000346889        0.0000369459
 Na         0.0000466590       -0.0001359403       -0.0001298393
 Na         0.0000151111       -0.0001474987        0.0003731877
 Na        -0.0001515663        0.0001391225        0.0002352695
 Cl         0.0000257739        0.0000099840        0.0000657724
 Cl         0.0000281958        0.0001674166       -0.0000136960
 Cl         0.0000259334        0.0000899677       -0.0002259827
 Cl        -0.0000307431       -0.0001191917       -0.0001744607
       8
 i =        6, time =        3.000, E =      -436.0234267125
 Na         2.0048695497        5.9330507177       -6.1646610879
 Na         2.4104384975       -5.4311957317        6.1359141814
 Na        -3.1106935365       -4.1423122102        3.4753693987
 Na         1.5250496187        3.4535139771       -3.2301407138
 Cl        -0.3378779086        1.5780250197        0.8577683249
 Cl        -0.0592556460       -0.6812232301       -0.9686310342
 Cl        -0.7868248275       -2.9518176853       -0.9550214861
 Cl        -0.6509992790        2.1762877446        0.9254776439
